*SPEF "1481-1998"
*DESIGN "i2c_master_top"
*DATE "Thu Aug  2 07:54:13 2018"
*VENDOR "Synopsys, Inc."
*PROGRAM "icc_shell"
*VERSION "G-2012.06-ICC-SP2"
*DESIGN_FLOW "PIN_CAP NONE"
*DIVIDER /
*DELIMITER :
*BUS_DELIMITER [ ]
*T_UNIT 1 NS
*C_UNIT 1 FF
*R_UNIT 1 OHM
*L_UNIT 1 HENRY

*NAME_MAP
*1 wb_adr_i[0]
*2 wb_dat_i[5]
*3 wb_dat_i[4]
*4 wb_dat_i[3]
*5 wb_dat_i[2]
*6 wb_dat_i[1]
*7 wb_dat_i[0]
*8 wb_adr_i[2]
*9 wb_adr_i[1]
*10 wb_dat_o[5]
*11 wb_dat_o[4]
*12 wb_dat_o[3]
*13 wb_dat_o[2]
*14 wb_dat_o[1]
*15 wb_dat_o[0]
*16 wb_dat_i[7]
*17 wb_dat_i[6]
*18 wb_cyc_i
*19 wb_stb_i
*20 wb_we_i
*21 arst_i
*22 wb_rst_i
*23 wb_clk_i
*24 wb_dat_o[7]
*25 wb_dat_o[6]
*26 sda_padoen_o
*27 sda_pad_o
*28 scl_padoen_o
*29 scl_pad_o
*30 wb_inta_o
*31 wb_ack_o
*32 sda_pad_i
*33 scl_pad_i
*34 byte_controller/bit_controller/cnt\[1\]
*35 byte_controller/bit_controller/sub_245/U49
*36 byte_controller/bit_controller/sub_245/U21
*37 byte_controller/bit_controller/U174
*38 byte_controller/bit_controller/cnt_reg_1_
*39 byte_controller/bit_controller/cnt\[0\]
*40 byte_controller/bit_controller/sub_245/U16
*41 byte_controller/bit_controller/U176
*42 byte_controller/bit_controller/cnt_reg_0_
*43 byte_controller/bit_controller/sub_245/n31
*44 byte_controller/bit_controller/sub_245/U29
*45 byte_controller/bit_controller/sub_245/U6
*46 byte_controller/bit_controller/sub_245/n10
*47 byte_controller/bit_controller/sub_245/U48
*48 byte_controller/bit_controller/sub_245/U30
*49 byte_controller/bit_controller/cnt\[2\]
*50 byte_controller/bit_controller/sub_245/U14
*51 byte_controller/bit_controller/cnt_reg_2_
*52 byte_controller/bit_controller/sub_245/n30
*53 byte_controller/bit_controller/sub_245/U28
*54 byte_controller/bit_controller/sub_245/U5
*55 byte_controller/bit_controller/sub_245/n9
*56 byte_controller/bit_controller/sub_245/U47
*57 byte_controller/bit_controller/cnt\[3\]
*58 byte_controller/bit_controller/sub_245/U13
*59 byte_controller/bit_controller/cnt_reg_3_
*60 byte_controller/bit_controller/sub_245/n29
*61 byte_controller/bit_controller/sub_245/U27
*62 byte_controller/bit_controller/sub_245/U2
*63 byte_controller/bit_controller/sub_245/n8
*64 byte_controller/bit_controller/sub_245/U46
*65 byte_controller/bit_controller/cnt\[4\]
*66 byte_controller/bit_controller/sub_245/U12
*67 byte_controller/bit_controller/cnt_reg_4_
*68 byte_controller/bit_controller/sub_245/n28
*69 byte_controller/bit_controller/sub_245/U26
*70 byte_controller/bit_controller/sub_245/U3
*71 byte_controller/bit_controller/sub_245/n7
*72 byte_controller/bit_controller/sub_245/U45
*73 byte_controller/bit_controller/cnt\[5\]
*74 byte_controller/bit_controller/sub_245/U11
*75 byte_controller/bit_controller/cnt_reg_5_
*76 byte_controller/bit_controller/sub_245/n27
*77 byte_controller/bit_controller/sub_245/U25
*78 byte_controller/bit_controller/sub_245/U4
*79 byte_controller/bit_controller/sub_245/n1
*80 byte_controller/bit_controller/sub_245/U44
*81 byte_controller/bit_controller/sub_245/U24
*82 byte_controller/bit_controller/sub_245/U15
*83 byte_controller/bit_controller/cnt\[7\]
*84 byte_controller/bit_controller/cnt_reg_7_
*85 byte_controller/bit_controller/sub_245/n25
*86 byte_controller/bit_controller/sub_245/U43
*87 byte_controller/bit_controller/sub_245/U23
*88 byte_controller/bit_controller/sub_245/n18
*89 byte_controller/bit_controller/sub_245/U19
*90 byte_controller/bit_controller/sub_245/n23
*91 byte_controller/bit_controller/sub_245/U42
*92 byte_controller/bit_controller/sub_245/U22
*93 byte_controller/bit_controller/cnt\[9\]
*94 byte_controller/bit_controller/cnt_reg_9_
*95 byte_controller/bit_controller/sub_245/n24
*96 byte_controller/bit_controller/sub_245/U41
*97 byte_controller/bit_controller/sub_245/U40
*98 byte_controller/bit_controller/sub_245/n19
*99 byte_controller/bit_controller/sub_245/U18
*100 byte_controller/bit_controller/sub_245/n37
*101 byte_controller/bit_controller/sub_245/U39
*102 byte_controller/bit_controller/sub_245/U38
*103 byte_controller/bit_controller/N340
*104 byte_controller/bit_controller/U75
*105 byte_controller/bit_controller/cnt\[11\]
*106 byte_controller/bit_controller/cnt_reg_11_
*107 byte_controller/bit_controller/sub_245/n35
*108 byte_controller/bit_controller/sub_245/U37
*109 byte_controller/bit_controller/sub_245/U36
*110 byte_controller/bit_controller/sub_245/n36
*111 byte_controller/bit_controller/sub_245/U7
*112 byte_controller/bit_controller/sub_245/n20
*113 byte_controller/bit_controller/sub_245/U17
*114 byte_controller/bit_controller/sub_245/n34
*115 byte_controller/bit_controller/sub_245/U1
*116 byte_controller/bit_controller/N360
*117 byte_controller/bit_controller/U71
*118 byte_controller/bit_controller/sub_245/n3
*119 byte_controller/bit_controller/sub_245/U35
*120 byte_controller/bit_controller/sub_245/U34
*121 byte_controller/bit_controller/sub_245/n21
*122 byte_controller/bit_controller/sub_245/U20
*123 byte_controller/bit_controller/sub_245/n33
*124 byte_controller/bit_controller/sub_245/U33
*125 byte_controller/bit_controller/sub_245/U32
*126 byte_controller/bit_controller/N370
*127 byte_controller/bit_controller/U69
*128 byte_controller/bit_controller/cnt\[14\]
*129 byte_controller/bit_controller/cnt_reg_14_
*130 byte_controller/bit_controller/N380
*131 byte_controller/bit_controller/U67
*132 byte_controller/bit_controller/sub_245/n32
*133 byte_controller/bit_controller/sub_245/U31
*134 byte_controller/bit_controller/cnt\[15\]
*135 byte_controller/bit_controller/cnt_reg_15_
*136 byte_controller/bit_controller/N390
*137 byte_controller/bit_controller/U65
*138 byte_controller/bit_controller/N2410
*139 byte_controller/bit_controller/sub_245/n12
*140 byte_controller/bit_controller/N2510
*141 byte_controller/bit_controller/sub_245/n13
*142 byte_controller/bit_controller/N2610
*143 byte_controller/bit_controller/U91
*144 byte_controller/bit_controller/sub_245/n14
*145 byte_controller/bit_controller/N2710
*146 byte_controller/bit_controller/U89
*147 byte_controller/bit_controller/sub_245/n15
*148 byte_controller/bit_controller/N280
*149 byte_controller/bit_controller/U87
*150 byte_controller/bit_controller/sub_245/n6
*151 byte_controller/bit_controller/sub_245/n16
*152 byte_controller/bit_controller/N290
*153 byte_controller/bit_controller/U85
*154 byte_controller/bit_controller/sub_245/n17
*155 byte_controller/bit_controller/sub_245/U10
*156 byte_controller/bit_controller/N303
*157 byte_controller/bit_controller/U83
*158 byte_controller/bit_controller/sub_245/n26
*159 byte_controller/bit_controller/sub_245/U9
*160 byte_controller/bit_controller/N320
*161 byte_controller/bit_controller/U79
*162 byte_controller/bit_controller/sub_245/n22
*163 byte_controller/bit_controller/sub_245/U8
*164 byte_controller/bit_controller/cnt\[13\]
*165 byte_controller/bit_controller/cnt_reg_13_
*166 byte_controller/bit_controller/cnt\[8\]
*167 byte_controller/bit_controller/cnt_reg_8_
*168 byte_controller/bit_controller/cnt\[10\]
*169 byte_controller/bit_controller/cnt_reg_10_
*170 byte_controller/bit_controller/cnt\[12\]
*171 byte_controller/bit_controller/cnt_reg_12_
*172 byte_controller/bit_controller/cnt\[6\]
*173 byte_controller/bit_controller/cnt_reg_6_
*174 byte_controller/bit_controller/N310
*175 byte_controller/bit_controller/U81
*176 byte_controller/bit_controller/N330
*177 byte_controller/bit_controller/U77
*178 byte_controller/bit_controller/N350
*179 byte_controller/bit_controller/U73
*180 byte_controller/bit_controller/filter_cnt\[1\]
*181 byte_controller/bit_controller/sub_277/U43
*182 byte_controller/bit_controller/sub_277/U15
*183 byte_controller/bit_controller/U53
*184 byte_controller/bit_controller/filter_cnt_reg_1_
*185 byte_controller/bit_controller/filter_cnt\[0\]
*186 byte_controller/bit_controller/sub_277/U16
*187 byte_controller/bit_controller/U51
*188 byte_controller/bit_controller/filter_cnt_reg_0_
*189 byte_controller/bit_controller/sub_277/n29
*190 byte_controller/bit_controller/sub_277/U27
*191 byte_controller/bit_controller/sub_277/U6
*192 byte_controller/bit_controller/sub_277/n10
*193 byte_controller/bit_controller/sub_277/U42
*194 byte_controller/bit_controller/sub_277/U28
*195 byte_controller/bit_controller/filter_cnt\[2\]
*196 byte_controller/bit_controller/sub_277/U14
*197 byte_controller/bit_controller/filter_cnt_reg_2_
*198 byte_controller/bit_controller/sub_277/n28
*199 byte_controller/bit_controller/sub_277/U26
*200 byte_controller/bit_controller/sub_277/U2
*201 byte_controller/bit_controller/sub_277/n9
*202 byte_controller/bit_controller/sub_277/U41
*203 byte_controller/bit_controller/filter_cnt\[3\]
*204 byte_controller/bit_controller/sub_277/U13
*205 byte_controller/bit_controller/U52
*206 byte_controller/bit_controller/filter_cnt_reg_3_
*207 byte_controller/bit_controller/sub_277/n27
*208 byte_controller/bit_controller/sub_277/U25
*209 byte_controller/bit_controller/sub_277/U3
*210 byte_controller/bit_controller/sub_277/n8
*211 byte_controller/bit_controller/sub_277/U40
*212 byte_controller/bit_controller/filter_cnt\[4\]
*213 byte_controller/bit_controller/sub_277/U12
*214 byte_controller/bit_controller/filter_cnt_reg_4_
*215 byte_controller/bit_controller/sub_277/n26
*216 byte_controller/bit_controller/sub_277/U24
*217 byte_controller/bit_controller/sub_277/U4
*218 byte_controller/bit_controller/sub_277/n7
*219 byte_controller/bit_controller/sub_277/U39
*220 byte_controller/bit_controller/filter_cnt\[5\]
*221 byte_controller/bit_controller/sub_277/U11
*222 byte_controller/bit_controller/filter_cnt_reg_5_
*223 byte_controller/bit_controller/sub_277/n25
*224 byte_controller/bit_controller/sub_277/U23
*225 byte_controller/bit_controller/sub_277/U5
*226 byte_controller/bit_controller/sub_277/n1
*227 byte_controller/bit_controller/sub_277/U38
*228 byte_controller/bit_controller/sub_277/U22
*229 byte_controller/bit_controller/sub_277/U17
*230 byte_controller/bit_controller/filter_cnt\[7\]
*231 byte_controller/bit_controller/U41
*232 byte_controller/bit_controller/filter_cnt_reg_7_
*233 byte_controller/bit_controller/sub_277/n23
*234 byte_controller/bit_controller/sub_277/U37
*235 byte_controller/bit_controller/sub_277/U21
*236 byte_controller/bit_controller/sub_277/n18
*237 byte_controller/bit_controller/sub_277/U18
*238 byte_controller/bit_controller/sub_277/n21
*239 byte_controller/bit_controller/sub_277/U36
*240 byte_controller/bit_controller/sub_277/U20
*241 byte_controller/bit_controller/filter_cnt\[9\]
*242 byte_controller/bit_controller/filter_cnt_reg_9_
*243 byte_controller/bit_controller/sub_277/n22
*244 byte_controller/bit_controller/sub_277/U35
*245 byte_controller/bit_controller/sub_277/U34
*246 byte_controller/bit_controller/sub_277/n19
*247 byte_controller/bit_controller/sub_277/U19
*248 byte_controller/bit_controller/sub_277/n33
*249 byte_controller/bit_controller/sub_277/U33
*250 byte_controller/bit_controller/sub_277/U32
*251 byte_controller/bit_controller/N770
*252 byte_controller/bit_controller/U21
*253 byte_controller/bit_controller/filter_cnt\[11\]
*254 byte_controller/bit_controller/filter_cnt_reg_11_
*255 byte_controller/bit_controller/sub_277/n31
*256 byte_controller/bit_controller/sub_277/U1
*257 byte_controller/bit_controller/sub_277/n32
*258 byte_controller/bit_controller/sub_277/U7
*259 byte_controller/bit_controller/filter_cnt\[12\]
*260 byte_controller/bit_controller/sub_277/U31
*261 byte_controller/bit_controller/sub_277/U30
*262 byte_controller/bit_controller/filter_cnt_reg_12_
*263 byte_controller/bit_controller/sub_277/n3
*264 byte_controller/bit_controller/N790
*265 byte_controller/bit_controller/U55
*266 byte_controller/bit_controller/sub_277/n30
*267 byte_controller/bit_controller/sub_277/U29
*268 byte_controller/bit_controller/filter_cnt\[13\]
*269 byte_controller/bit_controller/filter_cnt_reg_13_
*270 byte_controller/bit_controller/N800
*271 byte_controller/bit_controller/U121
*272 byte_controller/bit_controller/N670
*273 byte_controller/bit_controller/U25
*274 byte_controller/bit_controller/sub_277/n12
*275 byte_controller/bit_controller/N680
*276 byte_controller/bit_controller/U139
*277 byte_controller/bit_controller/sub_277/n13
*278 byte_controller/bit_controller/N690
*279 byte_controller/bit_controller/U137
*280 byte_controller/bit_controller/sub_277/n14
*281 byte_controller/bit_controller/N700
*282 byte_controller/bit_controller/U135
*283 byte_controller/bit_controller/sub_277/n15
*284 byte_controller/bit_controller/N710
*285 byte_controller/bit_controller/U133
*286 byte_controller/bit_controller/sub_277/n6
*287 byte_controller/bit_controller/sub_277/n16
*288 byte_controller/bit_controller/N720
*289 byte_controller/bit_controller/U131
*290 byte_controller/bit_controller/sub_277/n17
*291 byte_controller/bit_controller/sub_277/U10
*292 byte_controller/bit_controller/N730
*293 byte_controller/bit_controller/U129
*294 byte_controller/bit_controller/sub_277/n24
*295 byte_controller/bit_controller/sub_277/U9
*296 byte_controller/bit_controller/N750
*297 byte_controller/bit_controller/U23
*298 byte_controller/bit_controller/sub_277/n20
*299 byte_controller/bit_controller/sub_277/U8
*300 byte_controller/bit_controller/filter_cnt\[10\]
*301 byte_controller/bit_controller/filter_cnt_reg_10_
*302 byte_controller/bit_controller/filter_cnt\[8\]
*303 byte_controller/bit_controller/filter_cnt_reg_8_
*304 byte_controller/bit_controller/filter_cnt\[6\]
*305 byte_controller/bit_controller/filter_cnt_reg_6_
*306 byte_controller/bit_controller/N740
*307 byte_controller/bit_controller/U127
*308 byte_controller/bit_controller/N760
*309 byte_controller/bit_controller/U125
*310 byte_controller/bit_controller/N780
*311 byte_controller/bit_controller/U123
*312 byte_controller/bit_controller/n104
*313 byte_controller/bit_controller/U223
*314 byte_controller/bit_controller/U222
*315 byte_controller/bit_controller/U221
*316 byte_controller/bit_controller/U189
*317 byte_controller/bit_controller/n221
*318 byte_controller/bit_controller/U216
*319 byte_controller/bit_controller/U195
*320 byte_controller/bit_controller/U147
*321 byte_controller/bit_controller/c_state_reg_16_
*322 byte_controller/bit_controller/n223
*323 byte_controller/bit_controller/U105
*324 byte_controller/bit_controller/c_state_reg_14_
*325 byte_controller/bit_controller/n96
*326 byte_controller/bit_controller/c_state_reg_15_
*327 byte_controller/bit_controller/n590
*328 byte_controller/bit_controller/U220
*329 byte_controller/bit_controller/U218
*330 byte_controller/bit_controller/U217
*331 byte_controller/bit_controller/n222
*332 byte_controller/bit_controller/U104
*333 byte_controller/bit_controller/n940
*334 byte_controller/bit_controller/n58
*335 byte_controller/bit_controller/n860
*336 byte_controller/bit_controller/n600
*337 byte_controller/bit_controller/U58
*338 byte_controller/bit_controller/n74
*339 byte_controller/bit_controller/U143
*340 byte_controller/bit_controller/U106
*341 byte_controller/bit_controller/n900
*342 byte_controller/bit_controller/U207
*343 byte_controller/bit_controller/n930
*344 byte_controller/bit_controller/U219
*345 byte_controller/bit_controller/U209
*346 byte_controller/bit_controller/U200
*347 byte_controller/bit_controller/U8
*348 byte_controller/bit_controller/n231
*349 byte_controller/bit_controller/U202
*350 byte_controller/bit_controller/U201
*351 byte_controller/bit_controller/U154
*352 byte_controller/bit_controller/U102
*353 byte_controller/bit_controller/U101
*354 byte_controller/bit_controller/c_state_reg_6_
*355 byte_controller/bit_controller/n229
*356 byte_controller/bit_controller/U215
*357 byte_controller/bit_controller/c_state_reg_8_
*358 byte_controller/bit_controller/n850
*359 byte_controller/bit_controller/U12
*360 byte_controller/bit_controller/c_state_reg_9_
*361 byte_controller/bit_controller/n66
*362 byte_controller/bit_controller/U198
*363 byte_controller/bit_controller/U29
*364 byte_controller/bit_controller/n57
*365 byte_controller/bit_controller/U95
*366 byte_controller/bit_controller/U31
*367 byte_controller/bit_controller/n54
*368 byte_controller/bit_controller/U100
*369 byte_controller/bit_controller/n39
*370 byte_controller/bit_controller/U103
*371 byte_controller/bit_controller/U14
*372 byte_controller/bit_controller/U11
*373 byte_controller/bit_controller/U113
*374 byte_controller/bit_controller/U110
*375 byte_controller/bit_controller/U109
*376 byte_controller/bit_controller/U108
*377 byte_controller/bit_controller/U107
*378 byte_controller/bit_controller/U212
*379 byte_controller/bit_controller/U208
*380 byte_controller/bit_controller/U203
*381 byte_controller/bit_controller/U115
*382 byte_controller/bit_controller/n1100
*383 byte_controller/bit_controller/sda_chk_reg
*384 byte_controller/bit_controller/U213
*385 byte_controller/bit_controller/n610
*386 byte_controller/bit_controller/U40
*387 byte_controller/bit_controller/U4
*388 byte_controller/bit_controller/n272
*389 byte_controller/bit_controller/n255
*390 byte_controller/bit_controller/n71
*391 byte_controller/bit_controller/U206
*392 byte_controller/bit_controller/n263
*393 byte_controller/bit_controller/n880
*394 byte_controller/bit_controller/U214
*395 byte_controller/bit_controller/n890
*396 byte_controller/bit_controller/U119
*397 byte_controller/bit_controller/n36
*398 byte_controller/bit_controller/n840
*399 byte_controller/bit_controller/U204
*400 byte_controller/bit_controller/n870
*401 byte_controller/bit_controller/n52
*402 byte_controller/bit_controller/U99
*403 byte_controller/bit_controller/U28
*404 byte_controller/bit_controller/n193
*405 byte_controller/bit_controller/U152
*406 byte_controller/bit_controller/U151
*407 byte_controller/bit_controller/U118
*408 byte_controller/bit_controller/clk_en_reg
*409 byte_controller/bit_controller/n120
*410 byte_controller/bit_controller/U211
*411 byte_controller/bit_controller/U210
*412 byte_controller/bit_controller/U191
*413 byte_controller/bit_controller/n45
*414 byte_controller/bit_controller/U193
*415 byte_controller/bit_controller/U146
*416 byte_controller/bit_controller/n121
*417 byte_controller/bit_controller/U192
*418 byte_controller/bit_controller/U190
*419 byte_controller/bit_controller/n119
*420 byte_controller/bit_controller/n228
*421 byte_controller/bit_controller/n105
*422 byte_controller/bit_controller/n48
*423 byte_controller/bit_controller/U27
*424 byte_controller/bit_controller/U19
*425 byte_controller/bit_controller/n67
*426 byte_controller/bit_controller/U97
*427 byte_controller/bit_controller/n262
*428 byte_controller/bit_controller/n47
*429 byte_controller/bit_controller/U16
*430 byte_controller/bit_controller/n50
*431 byte_controller/bit_controller/U43
*432 byte_controller/bit_controller/n910
*433 byte_controller/bit_controller/n46
*434 byte_controller/bit_controller/U205
*435 byte_controller/bit_controller/U197
*436 byte_controller/bit_controller/n75
*437 byte_controller/bit_controller/U144
*438 byte_controller/bit_controller/n920
*439 byte_controller/bit_controller/n37
*440 byte_controller/bit_controller/U15
*441 byte_controller/bit_controller/n34
*442 byte_controller/bit_controller/n80
*443 byte_controller/bit_controller/U96
*444 byte_controller/bit_controller/U13
*445 byte_controller/bit_controller/n830
*446 byte_controller/bit_controller/U17
*447 byte_controller/bit_controller/n225
*448 byte_controller/bit_controller/c_state_reg_12_
*449 byte_controller/bit_controller/n259
*450 byte_controller/bit_controller/n95
*451 byte_controller/bit_controller/n230
*452 byte_controller/bit_controller/c_state_reg_7_
*453 byte_controller/bit_controller/n160
*454 byte_controller/bit_controller/U94
*455 byte_controller/bit_controller/n103
*456 byte_controller/bit_controller/n97
*457 byte_controller/bit_controller/U48
*458 byte_controller/bit_controller/n100
*459 byte_controller/bit_controller/n227
*460 byte_controller/bit_controller/U196
*461 byte_controller/bit_controller/c_state_reg_10_
*462 byte_controller/bit_controller/n261
*463 byte_controller/bit_controller/n102
*464 byte_controller/bit_controller/n98
*465 byte_controller/bit_controller/U194
*466 byte_controller/bit_controller/c_state_reg_11_
*467 byte_controller/bit_controller/n226
*468 byte_controller/bit_controller/n1090
*469 byte_controller/bit_controller/n49
*470 byte_controller/bit_controller/n101
*471 byte_controller/bit_controller/n107
*472 byte_controller/bit_controller/n111
*473 byte_controller/bit_controller/n112
*474 byte_controller/bit_controller/U149
*475 byte_controller/bit_controller/U42
*476 byte_controller/bit_controller/n64
*477 byte_controller/bit_controller/c_state_reg_1_
*478 byte_controller/bit_controller/n236
*479 byte_controller/bit_controller/n234
*480 byte_controller/bit_controller/U59
*481 byte_controller/bit_controller/U45
*482 byte_controller/bit_controller/c_state_reg_3_
*483 byte_controller/bit_controller/n237
*484 byte_controller/bit_controller/U47
*485 byte_controller/bit_controller/c_state_reg_0_
*486 byte_controller/bit_controller/n3
*487 byte_controller/bit_controller/n106
*488 byte_controller/bit_controller/U9
*489 byte_controller/bit_controller/n65
*490 byte_controller/bit_controller/n224
*491 byte_controller/bit_controller/c_state_reg_13_
*492 byte_controller/bit_controller/n235
*493 byte_controller/bit_controller/c_state_reg_2_
*494 U204
*495 U149
*496 U145
*497 U121
*498 U120
*499 byte_controller/bit_controller/dSCL_reg
*500 byte_controller/U100
*501 byte_controller/U31
*502 byte_controller/U27
*503 U236
*504 U235
*505 U232
*506 U207
*507 byte_controller/bit_controller/U188
*508 byte_controller/bit_controller/U187
*509 byte_controller/bit_controller/U186
*510 byte_controller/bit_controller/U150
*511 byte_controller/bit_controller/U49
*512 byte_controller/bit_controller/U46
*513 byte_controller/bit_controller/U32
*514 byte_controller/bit_controller/dSDA_reg
*515 byte_controller/bit_controller/n124
*516 byte_controller/bit_controller/U93
*517 byte_controller/bit_controller/U92
*518 byte_controller/bit_controller/U63
*519 byte_controller/bit_controller/U62
*520 byte_controller/bit_controller/U61
*521 byte_controller/bit_controller/U60
*522 byte_controller/bit_controller/U35
*523 byte_controller/bit_controller/U34
*524 byte_controller/bit_controller/U185
*525 byte_controller/bit_controller/U182
*526 byte_controller/bit_controller/U179
*527 byte_controller/bit_controller/U178
*528 byte_controller/bit_controller/U177
*529 byte_controller/bit_controller/U172
*530 byte_controller/bit_controller/n182
*531 byte_controller/bit_controller/cSDA_reg_0_
*532 byte_controller/bit_controller/N620
*533 byte_controller/bit_controller/cSDA_reg_1_
*534 byte_controller/bit_controller/n181
*535 byte_controller/bit_controller/cSCL_reg_0_
*536 byte_controller/bit_controller/U225
*537 byte_controller/bit_controller/N60
*538 byte_controller/bit_controller/cSCL_reg_1_
*539 byte_controller/bit_controller/n169
*540 byte_controller/bit_controller/N1230
*541 byte_controller/bit_controller/al_reg
*542 byte_controller/bit_controller/n212
*543 byte_controller/bit_controller/U184
*544 byte_controller/bit_controller/fSCL_reg_2_
*545 byte_controller/bit_controller/n214
*546 byte_controller/bit_controller/fSCL_reg_0_
*547 byte_controller/bit_controller/n213
*548 byte_controller/bit_controller/fSCL_reg_1_
*549 byte_controller/bit_controller/n176
*550 byte_controller/bit_controller/U183
*551 byte_controller/bit_controller/n8
*552 byte_controller/bit_controller/N109
*553 byte_controller/bit_controller/sSCL_reg
*554 byte_controller/bit_controller/n215
*555 byte_controller/bit_controller/U181
*556 byte_controller/bit_controller/fSDA_reg_2_
*557 byte_controller/bit_controller/n217
*558 byte_controller/bit_controller/fSDA_reg_0_
*559 byte_controller/bit_controller/U1
*560 byte_controller/bit_controller/n216
*561 byte_controller/bit_controller/fSDA_reg_1_
*562 byte_controller/bit_controller/U2
*563 byte_controller/bit_controller/n174
*564 byte_controller/bit_controller/U180
*565 byte_controller/bit_controller/n10
*566 byte_controller/bit_controller/U199
*567 byte_controller/bit_controller/N110
*568 byte_controller/bit_controller/sSDA_reg
*569 byte_controller/bit_controller/N61
*570 byte_controller/bit_controller/N59
*571 prer\[0\]
*572 prer_reg_0_
*573 byte_controller/bit_controller/N218
*574 byte_controller/bit_controller/U7
*575 byte_controller/bit_controller/U6
*576 byte_controller/bit_controller/U39
*577 byte_controller/bit_controller/n5
*578 byte_controller/bit_controller/n32
*579 byte_controller/bit_controller/U3
*580 byte_controller/bit_controller/n35
*581 byte_controller/bit_controller/U175
*582 byte_controller/bit_controller/n253
*583 prer\[1\]
*584 prer_reg_1_
*585 byte_controller/bit_controller/n33
*586 byte_controller/bit_controller/U173
*587 byte_controller/bit_controller/n252
*588 byte_controller/bit_controller/n186
*589 byte_controller/bit_controller/U142
*590 byte_controller/bit_controller/U56
*591 byte_controller/bit_controller/U37
*592 byte_controller/bit_controller/n185
*593 byte_controller/bit_controller/n220
*594 byte_controller/bit_controller/N1160
*595 byte_controller/bit_controller/sto_condition_reg
*596 prer\[2\]
*597 byte_controller/bit_controller/U171
*598 prer_reg_2_
*599 byte_controller/bit_controller/n173
*600 byte_controller/bit_controller/U90
*601 byte_controller/bit_controller/U24
*602 prer\[3\]
*603 byte_controller/bit_controller/U170
*604 prer_reg_3_
*605 byte_controller/bit_controller/n172
*606 byte_controller/bit_controller/U138
*607 byte_controller/bit_controller/U88
*608 prer\[4\]
*609 byte_controller/bit_controller/U169
*610 prer_reg_4_
*611 byte_controller/bit_controller/n170
*612 byte_controller/bit_controller/U136
*613 byte_controller/bit_controller/U86
*614 prer\[5\]
*615 byte_controller/bit_controller/U168
*616 prer_reg_5_
*617 byte_controller/bit_controller/n161
*618 byte_controller/bit_controller/U134
*619 byte_controller/bit_controller/U84
*620 prer\[6\]
*621 byte_controller/bit_controller/U167
*622 prer_reg_6_
*623 byte_controller/bit_controller/n159
*624 byte_controller/bit_controller/U132
*625 byte_controller/bit_controller/U82
*626 prer\[7\]
*627 byte_controller/bit_controller/U166
*628 prer_reg_7_
*629 byte_controller/bit_controller/n158
*630 byte_controller/bit_controller/U130
*631 byte_controller/bit_controller/U80
*632 byte_controller/bit_controller/n201
*633 byte_controller/bit_controller/U165
*634 byte_controller/bit_controller/U78
*635 byte_controller/bit_controller/n200
*636 byte_controller/bit_controller/U76
*637 byte_controller/bit_controller/n199
*638 byte_controller/bit_controller/U74
*639 byte_controller/bit_controller/n198
*640 byte_controller/bit_controller/U72
*641 byte_controller/bit_controller/n165
*642 byte_controller/bit_controller/U36
*643 prer\[8\]
*644 byte_controller/bit_controller/U164
*645 U167
*646 prer_reg_8_
*647 byte_controller/bit_controller/n157
*648 byte_controller/bit_controller/U128
*649 prer\[9\]
*650 byte_controller/bit_controller/U163
*651 U171
*652 prer_reg_9_
*653 byte_controller/bit_controller/n156
*654 byte_controller/bit_controller/U126
*655 prer\[10\]
*656 byte_controller/bit_controller/U162
*657 U195
*658 prer_reg_10_
*659 byte_controller/bit_controller/n155
*660 byte_controller/bit_controller/U22
*661 prer\[11\]
*662 byte_controller/bit_controller/U161
*663 U198
*664 prer_reg_11_
*665 byte_controller/bit_controller/n153
*666 byte_controller/bit_controller/U124
*667 prer\[12\]
*668 byte_controller/bit_controller/U160
*669 U201
*670 prer_reg_12_
*671 byte_controller/bit_controller/n131
*672 byte_controller/bit_controller/U70
*673 byte_controller/bit_controller/U20
*674 prer\[13\]
*675 byte_controller/bit_controller/U159
*676 U179
*677 prer_reg_13_
*678 byte_controller/bit_controller/n130
*679 byte_controller/bit_controller/U122
*680 byte_controller/bit_controller/U68
*681 prer\[14\]
*682 byte_controller/bit_controller/U158
*683 U183
*684 prer_reg_14_
*685 byte_controller/bit_controller/n127
*686 byte_controller/bit_controller/U66
*687 byte_controller/bit_controller/U54
*688 prer\[15\]
*689 byte_controller/bit_controller/U157
*690 U175
*691 prer_reg_15_
*692 byte_controller/bit_controller/n125
*693 byte_controller/bit_controller/U120
*694 byte_controller/bit_controller/U64
*695 byte_controller/bit_controller/n205
*696 byte_controller/bit_controller/U156
*697 byte_controller/bit_controller/n204
*698 byte_controller/bit_controller/n203
*699 byte_controller/bit_controller/n202
*700 byte_controller/bit_controller/n166
*701 byte_controller/bit_controller/n209
*702 byte_controller/bit_controller/U155
*703 byte_controller/bit_controller/n208
*704 byte_controller/bit_controller/n207
*705 byte_controller/bit_controller/n206
*706 byte_controller/bit_controller/n167
*707 byte_controller/bit_controller/n68
*708 byte_controller/bit_controller/U153
*709 byte_controller/bit_controller/U114
*710 byte_controller/bit_controller/U44
*711 byte_controller/bit_controller/n1150
*712 byte_controller/bit_controller/n1180
*713 byte_controller/bit_controller/U145
*714 byte_controller/bit_controller/U116
*715 byte_controller/bit_controller/U111
*716 byte_controller/core_cmd\[3\]
*717 byte_controller/U93
*718 byte_controller/core_cmd_reg_3_
*719 byte_controller/bit_controller/n129
*720 byte_controller/bit_controller/n24
*721 byte_controller/bit_controller/cmd_stop_reg
*722 byte_controller/bit_controller/n128
*723 byte_controller/bit_controller/n192
*724 byte_controller/bit_controller/n108
*725 byte_controller/bit_controller/n78
*726 byte_controller/bit_controller/U148
*727 byte_controller/bit_controller/n44
*728 byte_controller/bit_controller/n171
*729 byte_controller/core_cmd\[1\]
*730 byte_controller/bit_controller/U98
*731 byte_controller/core_cmd_reg_1_
*732 byte_controller/bit_controller/n79
*733 byte_controller/bit_controller/n187
*734 byte_controller/bit_controller/n126
*735 byte_controller/bit_controller/U141
*736 byte_controller/bit_controller/U140
*737 byte_controller/bit_controller/n14
*738 byte_controller/bit_controller/n188
*739 byte_controller/bit_controller/dout_reg